# generated using pymatgen
data_Na47P16S63Cl
_symmetry_space_group_name_H-M   'P 1'
_cell_length_a   13.90400000
_cell_length_b   13.90400000
_cell_length_c   14.15140000
_cell_angle_alpha   90.00000000
_cell_angle_beta   90.00000000
_cell_angle_gamma   90.00000000
_symmetry_Int_Tables_number   1
_chemical_formula_structural   Na47P16S63Cl
_chemical_formula_sum   'Na47 P16 S63 Cl1'
_cell_volume   2735.7658561
_cell_formula_units_Z   1
loop_
 _symmetry_equiv_pos_site_id
 _symmetry_equiv_pos_as_xyz
  1  'x, y, z'
loop_
 _atom_type_symbol
 _atom_type_oxidation_number
  Na+  1.0
  P5+  5.0
  S2-  -2.0
  Cl-  -1.0
loop_
 _atom_site_type_symbol
 _atom_site_label
 _atom_site_symmetry_multiplicity
 _atom_site_fract_x
 _atom_site_fract_y
 _atom_site_fract_z
 _atom_site_occupancy
  Na+  Na1  1  0.000000  0.250000  0.710330  1
  Na+  Na2  1  0.000000  0.750000  0.210330  1
  Na+  Na3  1  0.000000  0.750000  0.710330  1
  Na+  Na4  1  0.500000  0.250000  0.210330  1
  Na+  Na5  1  0.500000  0.250000  0.710330  1
  Na+  Na6  1  0.500000  0.750000  0.210330  1
  Na+  Na7  1  0.500000  0.750000  0.710330  1
  Na+  Na8  1  0.250000  0.000000  0.289670  1
  Na+  Na9  1  0.250000  0.000000  0.789670  1
  Na+  Na10  1  0.250000  0.500000  0.289670  1
  Na+  Na11  1  0.250000  0.500000  0.789670  1
  Na+  Na12  1  0.750000  0.000000  0.289670  1
  Na+  Na13  1  0.750000  0.000000  0.789670  1
  Na+  Na14  1  0.750000  0.500000  0.289670  1
  Na+  Na15  1  0.750000  0.500000  0.789670  1
  Na+  Na16  1  0.250000  0.000000  0.039670  1
  Na+  Na17  1  0.250000  0.000000  0.539670  1
  Na+  Na18  1  0.250000  0.500000  0.039670  1
  Na+  Na19  1  0.250000  0.500000  0.539670  1
  Na+  Na20  1  0.750000  0.000000  0.039670  1
  Na+  Na21  1  0.750000  0.000000  0.539670  1
  Na+  Na22  1  0.750000  0.500000  0.039670  1
  Na+  Na23  1  0.750000  0.500000  0.539670  1
  Na+  Na24  1  0.000000  0.250000  0.460330  1
  Na+  Na25  1  0.000000  0.250000  0.960330  1
  Na+  Na26  1  0.000000  0.750000  0.460330  1
  Na+  Na27  1  0.000000  0.750000  0.960330  1
  Na+  Na28  1  0.500000  0.250000  0.460330  1
  Na+  Na29  1  0.500000  0.250000  0.960330  1
  Na+  Na30  1  0.500000  0.750000  0.460330  1
  Na+  Na31  1  0.500000  0.750000  0.960330  1
  Na+  Na32  1  0.000000  0.000000  0.000000  1
  Na+  Na33  1  0.000000  0.000000  0.500000  1
  Na+  Na34  1  0.000000  0.500000  0.000000  1
  Na+  Na35  1  0.000000  0.500000  0.500000  1
  Na+  Na36  1  0.500000  0.000000  0.000000  1
  Na+  Na37  1  0.500000  0.000000  0.500000  1
  Na+  Na38  1  0.500000  0.500000  0.000000  1
  Na+  Na39  1  0.500000  0.500000  0.500000  1
  Na+  Na40  1  0.250000  0.250000  0.250000  1
  Na+  Na41  1  0.250000  0.250000  0.750000  1
  Na+  Na42  1  0.250000  0.750000  0.250000  1
  Na+  Na43  1  0.250000  0.750000  0.750000  1
  Na+  Na44  1  0.750000  0.250000  0.250000  1
  Na+  Na45  1  0.750000  0.250000  0.750000  1
  Na+  Na46  1  0.750000  0.750000  0.250000  1
  Na+  Na47  1  0.750000  0.750000  0.750000  1
  P5+  P48  1  0.000000  0.000000  0.250000  1
  P5+  P49  1  0.000000  0.000000  0.750000  1
  P5+  P50  1  0.000000  0.500000  0.250000  1
  P5+  P51  1  0.000000  0.500000  0.750000  1
  P5+  P52  1  0.500000  0.000000  0.250000  1
  P5+  P53  1  0.500000  0.000000  0.750000  1
  P5+  P54  1  0.500000  0.500000  0.250000  1
  P5+  P55  1  0.500000  0.500000  0.750000  1
  P5+  P56  1  0.250000  0.250000  0.000000  1
  P5+  P57  1  0.250000  0.250000  0.500000  1
  P5+  P58  1  0.250000  0.750000  0.000000  1
  P5+  P59  1  0.250000  0.750000  0.500000  1
  P5+  P60  1  0.750000  0.250000  0.000000  1
  P5+  P61  1  0.750000  0.250000  0.500000  1
  P5+  P62  1  0.750000  0.750000  0.000000  1
  P5+  P63  1  0.750000  0.750000  0.500000  1
  S2-  S64  1  0.156220  0.173775  0.082510  1
  S2-  S65  1  0.156220  0.173775  0.582510  1
  S2-  S66  1  0.156220  0.673775  0.082510  1
  S2-  S67  1  0.156220  0.673775  0.582510  1
  S2-  S68  1  0.656220  0.173775  0.082510  1
  S2-  S69  1  0.656220  0.173775  0.582510  1
  S2-  S70  1  0.656220  0.673775  0.082510  1
  S2-  S71  1  0.656220  0.673775  0.582510  1
  S2-  S72  1  0.173775  0.343780  0.417490  1
  S2-  S73  1  0.173775  0.343780  0.917490  1
  S2-  S74  1  0.173775  0.843780  0.417490  1
  S2-  S75  1  0.673775  0.343780  0.417490  1
  S2-  S76  1  0.673775  0.343780  0.917490  1
  S2-  S77  1  0.673775  0.843780  0.417490  1
  S2-  S78  1  0.673775  0.843780  0.917490  1
  S2-  S79  1  0.326225  0.156220  0.417490  1
  S2-  S80  1  0.326225  0.156220  0.917490  1
  S2-  S81  1  0.326225  0.656220  0.417490  1
  S2-  S82  1  0.326225  0.656220  0.917490  1
  S2-  S83  1  0.826225  0.156220  0.417490  1
  S2-  S84  1  0.826225  0.156220  0.917490  1
  S2-  S85  1  0.826225  0.656220  0.417490  1
  S2-  S86  1  0.826225  0.656220  0.917490  1
  S2-  S87  1  0.406220  0.076225  0.167490  1
  S2-  S88  1  0.406220  0.076225  0.667490  1
  S2-  S89  1  0.406220  0.576225  0.167490  1
  S2-  S90  1  0.406220  0.576225  0.667490  1
  S2-  S91  1  0.906220  0.076225  0.167490  1
  S2-  S92  1  0.906220  0.076225  0.667490  1
  S2-  S93  1  0.906220  0.576225  0.167490  1
  S2-  S94  1  0.906220  0.576225  0.667490  1
  S2-  S95  1  0.093780  0.423775  0.167490  1
  S2-  S96  1  0.093780  0.423775  0.667490  1
  S2-  S97  1  0.093780  0.923775  0.167490  1
  S2-  S98  1  0.093780  0.923775  0.667490  1
  S2-  S99  1  0.593780  0.423775  0.167490  1
  S2-  S100  1  0.593780  0.423775  0.667490  1
  S2-  S101  1  0.593780  0.923775  0.167490  1
  S2-  S102  1  0.593780  0.923775  0.667490  1
  S2-  S103  1  0.343780  0.326225  0.082510  1
  S2-  S104  1  0.343780  0.326225  0.582510  1
  S2-  S105  1  0.343780  0.826225  0.082510  1
  S2-  S106  1  0.343780  0.826225  0.582510  1
  S2-  S107  1  0.843780  0.326225  0.082510  1
  S2-  S108  1  0.843780  0.326225  0.582510  1
  S2-  S109  1  0.843780  0.826225  0.082510  1
  S2-  S110  1  0.843780  0.826225  0.582510  1
  S2-  S111  1  0.076225  0.093780  0.332510  1
  S2-  S112  1  0.076225  0.093780  0.832510  1
  S2-  S113  1  0.076225  0.593780  0.332510  1
  S2-  S114  1  0.076225  0.593780  0.832510  1
  S2-  S115  1  0.576225  0.093780  0.332510  1
  S2-  S116  1  0.576225  0.093780  0.832510  1
  S2-  S117  1  0.576225  0.593780  0.332510  1
  S2-  S118  1  0.576225  0.593780  0.832510  1
  S2-  S119  1  0.423775  0.406220  0.332510  1
  S2-  S120  1  0.423775  0.406220  0.832510  1
  S2-  S121  1  0.423775  0.906220  0.332510  1
  S2-  S122  1  0.423775  0.906220  0.832510  1
  S2-  S123  1  0.923775  0.406220  0.332510  1
  S2-  S124  1  0.923775  0.406220  0.832510  1
  S2-  S125  1  0.923775  0.906220  0.332510  1
  S2-  S126  1  0.923775  0.906220  0.832510  1
  Cl-  Cl127  1  0.173775  0.843780  0.917490  1
