# generated using pymatgen
data_Li4SnS4
_symmetry_space_group_name_H-M   'P 1'
_cell_length_a   6.15023000
_cell_length_b   7.75480000
_cell_length_c   14.03400000
_cell_angle_alpha   90.00000000
_cell_angle_beta   90.00000000
_cell_angle_gamma   90.00000000
_symmetry_Int_Tables_number   1
_chemical_formula_structural   Li4SnS4
_chemical_formula_sum   'Li16 Sn4 S16'
_cell_volume   669.334839779
_cell_formula_units_Z   4
loop_
 _symmetry_equiv_pos_site_id
 _symmetry_equiv_pos_as_xyz
  1  'x, y, z'
loop_
 _atom_site_type_symbol
 _atom_site_label
 _atom_site_symmetry_multiplicity
 _atom_site_fract_x
 _atom_site_fract_y
 _atom_site_fract_z
 _atom_site_occupancy
  Li  Li1  1  0.631500  0.250000  0.587300  1
  Li  Li2  1  0.131500  0.750000  0.912700  1
  Li  Li3  1  0.368500  0.750000  0.412700  1
  Li  Li4  1  0.868500  0.250000  0.087300  1
  Li  Li5  1  0.699700  0.002700  0.823200  1
  Li  Li6  1  0.199700  0.997300  0.676800  1
  Li  Li7  1  0.300300  0.502700  0.176800  1
  Li  Li8  1  0.800300  0.497300  0.323200  1
  Li  Li9  1  0.300300  0.997300  0.176800  1
  Li  Li10  1  0.800300  0.002700  0.323200  1
  Li  Li11  1  0.699700  0.497300  0.823200  1
  Li  Li12  1  0.199700  0.502700  0.676800  1
  Li  Li13  1  0.500000  0.000000  0.000000  1
  Li  Li14  1  0.000000  0.000000  0.500000  1
  Li  Li15  1  0.500000  0.500000  0.000000  1
  Li  Li16  1  0.000000  0.500000  0.500000  1
  Sn  Sn17  1  0.649400  0.750000  0.589220  1.0
  Sn  Sn18  1  0.149400  0.250000  0.910780  1.0
  Sn  Sn19  1  0.350600  0.250000  0.410780  1.0
  Sn  Sn20  1  0.850600  0.750000  0.089220  1.0
  S  S21  1  0.775800  0.985100  0.657200  1
  S  S22  1  0.275800  0.014900  0.842800  1
  S  S23  1  0.224200  0.485100  0.342800  1
  S  S24  1  0.724200  0.514900  0.157200  1
  S  S25  1  0.224200  0.014900  0.342800  1
  S  S26  1  0.724200  0.985100  0.157200  1
  S  S27  1  0.775800  0.514900  0.657200  1
  S  S28  1  0.275800  0.485100  0.842800  1
  S  S29  1  0.796600  0.250000  0.912900  1
  S  S30  1  0.296600  0.750000  0.587100  1
  S  S31  1  0.203400  0.750000  0.087100  1
  S  S32  1  0.703400  0.250000  0.412900  1
  S  S33  1  0.731500  0.750000  0.939000  1
  S  S34  1  0.231500  0.250000  0.561000  1
  S  S35  1  0.268500  0.250000  0.061000  1
  S  S36  1  0.768500  0.750000  0.439000  1
