# generated using pymatgen
data_Na47P16S63Cl
_symmetry_space_group_name_H-M   'P 1'
_cell_length_a   13.90400000
_cell_length_b   13.90400000
_cell_length_c   14.15140000
_cell_angle_alpha   90.00000000
_cell_angle_beta   90.00000000
_cell_angle_gamma   90.00000000
_symmetry_Int_Tables_number   1
_chemical_formula_structural   Na47P16S63Cl
_chemical_formula_sum   'Na47 P16 S63 Cl1'
_cell_volume   2735.7658561
_cell_formula_units_Z   1
loop_
 _symmetry_equiv_pos_site_id
 _symmetry_equiv_pos_as_xyz
  1  'x, y, z'
loop_
 _atom_type_symbol
 _atom_type_oxidation_number
  Na+  1.0
  P5+  5.0
  S2-  -2.0
  Cl-  -1.0
loop_
 _atom_site_type_symbol
 _atom_site_label
 _atom_site_symmetry_multiplicity
 _atom_site_fract_x
 _atom_site_fract_y
 _atom_site_fract_z
 _atom_site_occupancy
  Na+  Na1  1  0.000000  0.250000  0.710330  1
  Na+  Na2  1  0.000000  0.750000  0.210330  1
  Na+  Na3  1  0.000000  0.750000  0.710330  1
  Na+  Na4  1  0.500000  0.250000  0.210330  1
  Na+  Na5  1  0.500000  0.250000  0.710330  1
  Na+  Na6  1  0.500000  0.750000  0.210330  1
  Na+  Na7  1  0.500000  0.750000  0.710330  1
  Na+  Na8  1  0.250000  0.000000  0.289670  1
  Na+  Na9  1  0.250000  0.000000  0.789670  1
  Na+  Na10  1  0.250000  0.500000  0.289670  1
  Na+  Na11  1  0.250000  0.500000  0.789670  1
  Na+  Na12  1  0.750000  0.000000  0.289670  1
  Na+  Na13  1  0.750000  0.000000  0.789670  1
  Na+  Na14  1  0.750000  0.500000  0.289670  1
  Na+  Na15  1  0.750000  0.500000  0.789670  1
  Na+  Na16  1  0.250000  0.000000  0.039670  1
  Na+  Na17  1  0.250000  0.000000  0.539670  1
  Na+  Na18  1  0.250000  0.500000  0.039670  1
  Na+  Na19  1  0.250000  0.500000  0.539670  1
  Na+  Na20  1  0.750000  0.000000  0.039670  1
  Na+  Na21  1  0.750000  0.000000  0.539670  1
  Na+  Na22  1  0.750000  0.500000  0.039670  1
  Na+  Na23  1  0.750000  0.500000  0.539670  1
  Na+  Na24  1  0.000000  0.250000  0.460330  1
  Na+  Na25  1  0.000000  0.250000  0.960330  1
  Na+  Na26  1  0.000000  0.750000  0.460330  1
  Na+  Na27  1  0.000000  0.750000  0.960330  1
  Na+  Na28  1  0.500000  0.250000  0.460330  1
  Na+  Na29  1  0.500000  0.250000  0.960330  1
  Na+  Na30  1  0.500000  0.750000  0.460330  1
  Na+  Na31  1  0.500000  0.750000  0.960330  1
  Na+  Na32  1  0.000000  0.000000  0.000000  1
  Na+  Na33  1  0.000000  0.000000  0.500000  1
  Na+  Na34  1  0.000000  0.500000  0.000000  1
  Na+  Na35  1  0.000000  0.500000  0.500000  1
  Na+  Na36  1  0.500000  0.000000  0.000000  1
  Na+  Na37  1  0.500000  0.000000  0.500000  1
  Na+  Na38  1  0.500000  0.500000  0.000000  1
  Na+  Na39  1  0.500000  0.500000  0.500000  1
  Na+  Na40  1  0.250000  0.250000  0.250000  1
  Na+  Na41  1  0.250000  0.250000  0.750000  1
  Na+  Na42  1  0.250000  0.750000  0.250000  1
  Na+  Na43  1  0.250000  0.750000  0.750000  1
  Na+  Na44  1  0.750000  0.250000  0.250000  1
  Na+  Na45  1  0.750000  0.250000  0.750000  1
  Na+  Na46  1  0.750000  0.750000  0.250000  1
  Na+  Na47  1  0.750000  0.750000  0.750000  1
  P5+  P48  1  0.000000  0.000000  0.250000  1
  P5+  P49  1  0.000000  0.000000  0.750000  1
  P5+  P50  1  0.000000  0.500000  0.250000  1
  P5+  P51  1  0.000000  0.500000  0.750000  1
  P5+  P52  1  0.500000  0.000000  0.250000  1
  P5+  P53  1  0.500000  0.000000  0.750000  1
  P5+  P54  1  0.500000  0.500000  0.250000  1
  P5+  P55  1  0.500000  0.500000  0.750000  1
  P5+  P56  1  0.250000  0.250000  0.000000  1
  P5+  P57  1  0.250000  0.250000  0.500000  1
  P5+  P58  1  0.250000  0.750000  0.000000  1
  P5+  P59  1  0.250000  0.750000  0.500000  1
  P5+  P60  1  0.750000  0.250000  0.000000  1
  P5+  P61  1  0.750000  0.250000  0.500000  1
  P5+  P62  1  0.750000  0.750000  0.000000  1
  P5+  P63  1  0.750000  0.750000  0.500000  1
  S2-  S64  1  0.156220  0.173775  0.082510  0.984375
  Cl-  Cl65  1  0.156220  0.173775  0.082510  0.015625
  S2-  S66  1  0.156220  0.173775  0.582510  0.984375
  Cl-  Cl67  1  0.156220  0.173775  0.582510  0.015625
  S2-  S68  1  0.156220  0.673775  0.082510  0.984375
  Cl-  Cl69  1  0.156220  0.673775  0.082510  0.015625
  S2-  S70  1  0.156220  0.673775  0.582510  0.984375
  Cl-  Cl71  1  0.156220  0.673775  0.582510  0.015625
  S2-  S72  1  0.656220  0.173775  0.082510  0.984375
  Cl-  Cl73  1  0.656220  0.173775  0.082510  0.015625
  S2-  S74  1  0.656220  0.173775  0.582510  0.984375
  Cl-  Cl75  1  0.656220  0.173775  0.582510  0.015625
  S2-  S76  1  0.656220  0.673775  0.082510  0.984375
  Cl-  Cl77  1  0.656220  0.673775  0.082510  0.015625
  S2-  S78  1  0.656220  0.673775  0.582510  0.984375
  Cl-  Cl79  1  0.656220  0.673775  0.582510  0.015625
  S2-  S80  1  0.173775  0.343780  0.417490  0.984375
  Cl-  Cl81  1  0.173775  0.343780  0.417490  0.015625
  S2-  S82  1  0.173775  0.343780  0.917490  0.984375
  Cl-  Cl83  1  0.173775  0.343780  0.917490  0.015625
  S2-  S84  1  0.173775  0.843780  0.417490  0.984375
  Cl-  Cl85  1  0.173775  0.843780  0.417490  0.015625
  S2-  S86  1  0.173775  0.843780  0.917490  0.984375
  Cl-  Cl87  1  0.173775  0.843780  0.917490  0.015625
  S2-  S88  1  0.673775  0.343780  0.417490  0.984375
  Cl-  Cl89  1  0.673775  0.343780  0.417490  0.015625
  S2-  S90  1  0.673775  0.343780  0.917490  0.984375
  Cl-  Cl91  1  0.673775  0.343780  0.917490  0.015625
  S2-  S92  1  0.673775  0.843780  0.417490  0.984375
  Cl-  Cl93  1  0.673775  0.843780  0.417490  0.015625
  S2-  S94  1  0.673775  0.843780  0.917490  0.984375
  Cl-  Cl95  1  0.673775  0.843780  0.917490  0.015625
  S2-  S96  1  0.326225  0.156220  0.417490  0.984375
  Cl-  Cl97  1  0.326225  0.156220  0.417490  0.015625
  S2-  S98  1  0.326225  0.156220  0.917490  0.984375
  Cl-  Cl99  1  0.326225  0.156220  0.917490  0.015625
  S2-  S100  1  0.326225  0.656220  0.417490  0.984375
  Cl-  Cl101  1  0.326225  0.656220  0.417490  0.015625
  S2-  S102  1  0.326225  0.656220  0.917490  0.984375
  Cl-  Cl103  1  0.326225  0.656220  0.917490  0.015625
  S2-  S104  1  0.826225  0.156220  0.417490  0.984375
  Cl-  Cl105  1  0.826225  0.156220  0.417490  0.015625
  S2-  S106  1  0.826225  0.156220  0.917490  0.984375
  Cl-  Cl107  1  0.826225  0.156220  0.917490  0.015625
  S2-  S108  1  0.826225  0.656220  0.417490  0.984375
  Cl-  Cl109  1  0.826225  0.656220  0.417490  0.015625
  S2-  S110  1  0.826225  0.656220  0.917490  0.984375
  Cl-  Cl111  1  0.826225  0.656220  0.917490  0.015625
  S2-  S112  1  0.406220  0.076225  0.167490  0.984375
  Cl-  Cl113  1  0.406220  0.076225  0.167490  0.015625
  S2-  S114  1  0.406220  0.076225  0.667490  0.984375
  Cl-  Cl115  1  0.406220  0.076225  0.667490  0.015625
  S2-  S116  1  0.406220  0.576225  0.167490  0.984375
  Cl-  Cl117  1  0.406220  0.576225  0.167490  0.015625
  S2-  S118  1  0.406220  0.576225  0.667490  0.984375
  Cl-  Cl119  1  0.406220  0.576225  0.667490  0.015625
  S2-  S120  1  0.906220  0.076225  0.167490  0.984375
  Cl-  Cl121  1  0.906220  0.076225  0.167490  0.015625
  S2-  S122  1  0.906220  0.076225  0.667490  0.984375
  Cl-  Cl123  1  0.906220  0.076225  0.667490  0.015625
  S2-  S124  1  0.906220  0.576225  0.167490  0.984375
  Cl-  Cl125  1  0.906220  0.576225  0.167490  0.015625
  S2-  S126  1  0.906220  0.576225  0.667490  0.984375
  Cl-  Cl127  1  0.906220  0.576225  0.667490  0.015625
  S2-  S128  1  0.093780  0.423775  0.167490  0.984375
  Cl-  Cl129  1  0.093780  0.423775  0.167490  0.015625
  S2-  S130  1  0.093780  0.423775  0.667490  0.984375
  Cl-  Cl131  1  0.093780  0.423775  0.667490  0.015625
  S2-  S132  1  0.093780  0.923775  0.167490  0.984375
  Cl-  Cl133  1  0.093780  0.923775  0.167490  0.015625
  S2-  S134  1  0.093780  0.923775  0.667490  0.984375
  Cl-  Cl135  1  0.093780  0.923775  0.667490  0.015625
  S2-  S136  1  0.593780  0.423775  0.167490  0.984375
  Cl-  Cl137  1  0.593780  0.423775  0.167490  0.015625
  S2-  S138  1  0.593780  0.423775  0.667490  0.984375
  Cl-  Cl139  1  0.593780  0.423775  0.667490  0.015625
  S2-  S140  1  0.593780  0.923775  0.167490  0.984375
  Cl-  Cl141  1  0.593780  0.923775  0.167490  0.015625
  S2-  S142  1  0.593780  0.923775  0.667490  0.984375
  Cl-  Cl143  1  0.593780  0.923775  0.667490  0.015625
  S2-  S144  1  0.343780  0.326225  0.082510  0.984375
  Cl-  Cl145  1  0.343780  0.326225  0.082510  0.015625
  S2-  S146  1  0.343780  0.326225  0.582510  0.984375
  Cl-  Cl147  1  0.343780  0.326225  0.582510  0.015625
  S2-  S148  1  0.343780  0.826225  0.082510  0.984375
  Cl-  Cl149  1  0.343780  0.826225  0.082510  0.015625
  S2-  S150  1  0.343780  0.826225  0.582510  0.984375
  Cl-  Cl151  1  0.343780  0.826225  0.582510  0.015625
  S2-  S152  1  0.843780  0.326225  0.082510  0.984375
  Cl-  Cl153  1  0.843780  0.326225  0.082510  0.015625
  S2-  S154  1  0.843780  0.326225  0.582510  0.984375
  Cl-  Cl155  1  0.843780  0.326225  0.582510  0.015625
  S2-  S156  1  0.843780  0.826225  0.082510  0.984375
  Cl-  Cl157  1  0.843780  0.826225  0.082510  0.015625
  S2-  S158  1  0.843780  0.826225  0.582510  0.984375
  Cl-  Cl159  1  0.843780  0.826225  0.582510  0.015625
  S2-  S160  1  0.076225  0.093780  0.332510  0.984375
  Cl-  Cl161  1  0.076225  0.093780  0.332510  0.015625
  S2-  S162  1  0.076225  0.093780  0.832510  0.984375
  Cl-  Cl163  1  0.076225  0.093780  0.832510  0.015625
  S2-  S164  1  0.076225  0.593780  0.332510  0.984375
  Cl-  Cl165  1  0.076225  0.593780  0.332510  0.015625
  S2-  S166  1  0.076225  0.593780  0.832510  0.984375
  Cl-  Cl167  1  0.076225  0.593780  0.832510  0.015625
  S2-  S168  1  0.576225  0.093780  0.332510  0.984375
  Cl-  Cl169  1  0.576225  0.093780  0.332510  0.015625
  S2-  S170  1  0.576225  0.093780  0.832510  0.984375
  Cl-  Cl171  1  0.576225  0.093780  0.832510  0.015625
  S2-  S172  1  0.576225  0.593780  0.332510  0.984375
  Cl-  Cl173  1  0.576225  0.593780  0.332510  0.015625
  S2-  S174  1  0.576225  0.593780  0.832510  0.984375
  Cl-  Cl175  1  0.576225  0.593780  0.832510  0.015625
  S2-  S176  1  0.423775  0.406220  0.332510  0.984375
  Cl-  Cl177  1  0.423775  0.406220  0.332510  0.015625
  S2-  S178  1  0.423775  0.406220  0.832510  0.984375
  Cl-  Cl179  1  0.423775  0.406220  0.832510  0.015625
  S2-  S180  1  0.423775  0.906220  0.332510  0.984375
  Cl-  Cl181  1  0.423775  0.906220  0.332510  0.015625
  S2-  S182  1  0.423775  0.906220  0.832510  0.984375
  Cl-  Cl183  1  0.423775  0.906220  0.832510  0.015625
  S2-  S184  1  0.923775  0.406220  0.332510  0.984375
  Cl-  Cl185  1  0.923775  0.406220  0.332510  0.015625
  S2-  S186  1  0.923775  0.406220  0.832510  0.984375
  Cl-  Cl187  1  0.923775  0.406220  0.832510  0.015625
  S2-  S188  1  0.923775  0.906220  0.332510  0.984375
  Cl-  Cl189  1  0.923775  0.906220  0.332510  0.015625
  S2-  S190  1  0.923775  0.906220  0.832510  0.984375
  Cl-  Cl191  1  0.923775  0.906220  0.832510  0.015625
