# generated using pymatgen
data_Na5P2S7Cl
_symmetry_space_group_name_H-M   'P 1'
_cell_length_a   6.95200000
_cell_length_b   6.95200000
_cell_length_c   7.07570000
_cell_angle_alpha   90.00000000
_cell_angle_beta   90.00000000
_cell_angle_gamma   90.00000000
_symmetry_Int_Tables_number   1
_chemical_formula_structural   Na5P2S7Cl
_chemical_formula_sum   'Na5 P2 S7 Cl1'
_cell_volume   341.970732013
_cell_formula_units_Z   1
loop_
 _symmetry_equiv_pos_site_id
 _symmetry_equiv_pos_as_xyz
  1  'x, y, z'
loop_
 _atom_type_symbol
 _atom_type_oxidation_number
  Na+  1.0
  P5+  5.0
  S2-  -2.0
  Cl-  -1.0
loop_
 _atom_site_type_symbol
 _atom_site_label
 _atom_site_symmetry_multiplicity
 _atom_site_fract_x
 _atom_site_fract_y
 _atom_site_fract_z
 _atom_site_occupancy
  Na+  Na1  1  0.000000  0.500000  0.420660  1
  Na+  Na2  1  0.500000  0.000000  0.579340  1
  Na+  Na3  1  0.500000  0.000000  0.079340  1
  Na+  Na4  1  0.000000  0.500000  0.920660  1
  Na+  Na5  1  0.500000  0.500000  0.500000  1
  P5+  P6  1  0.000000  0.000000  0.500000  1
  P5+  P7  1  0.500000  0.500000  0.000000  1
  S2-  S8  1  0.312440  0.347550  0.165020  1
  S2-  S9  1  0.347550  0.687560  0.834980  1
  S2-  S10  1  0.652450  0.312440  0.834980  1
  S2-  S11  1  0.812440  0.152450  0.334980  1
  S2-  S12  1  0.687560  0.652450  0.165020  1
  S2-  S13  1  0.152450  0.187560  0.665020  1
  S2-  S14  1  0.847550  0.812440  0.665020  1
  Cl-  Cl15  1  0.187560  0.847550  0.334980  1
